<?xml version="1.0"?>

<!-- generated on 07/05/10 08:53:33 by SUMO netconvert Version dev-SVN-r8163
<configuration>

    <input>
        <xml-node-files value="droomdorp.nod.xml"/>
        <xml-edge-files value="droomdorp.edg.xml"/>
    </input>

    <output>
        <output-file value="t1.net.xml"/>
    </output>

</configuration>
-->

<net>

   <location netOffset="501.00,251.00" convBoundary="0.00,0.00,1002.00,502.00" origBoundary="-501.00,-251.00,501.00,251.00" projParameter="!"/>

   <edge id=":xp1_0" function="internal">
      <lanes>
         <lane id=":xp1_0_0" depart="0" maxspeed="13.90" length="10.88" shape="282.75,262.35 282.56,258.11 281.97,255.08 281.01,253.26 279.65,252.65"/>
      </lanes>
   </edge>

   <edge id=":xp1_1" function="internal">
      <lanes>
         <lane id=":xp1_1_0" depart="0" maxspeed="13.90" length="22.98" shape="286.05,262.35 286.57,254.67 287.70,248.57 288.83,243.69 289.35,239.65"/>
      </lanes>
   </edge>

   <edge id=":xp1_2" function="internal">
      <lanes>
         <lane id=":xp1_2_0" depart="0" maxspeed="13.90" length="12.92" shape="289.35,262.35 290.16,256.66 294.58,251.41"/>
      </lanes>
   </edge>

   <edge id=":xp1_16" function="internal">
      <lanes>
         <lane id=":xp1_16_0" depart="0" maxspeed="13.90" length="8.05" shape="294.58,251.41 296.66,250.16 302.35,249.35"/>
      </lanes>
   </edge>

   <edge id=":xp1_3" function="internal">
      <lanes>
         <lane id=":xp1_3_0" depart="0" maxspeed="13.90" length="0.10" shape="289.35,262.35 290.12,261.20"/>
      </lanes>
   </edge>

   <edge id=":xp1_17" function="internal">
      <lanes>
         <lane id=":xp1_17_0" depart="0" maxspeed="13.90" length="4.72" shape="290.12,261.20 290.17,261.11 291.00,260.70 291.82,261.11 292.65,262.35"/>
      </lanes>
   </edge>

   <edge id=":xp1_4" function="internal">
      <lanes>
         <lane id=":xp1_4_0" depart="0" maxspeed="13.90" length="10.88" shape="302.35,259.25 298.11,259.44 295.08,260.02 293.26,260.99 292.65,262.35"/>
      </lanes>
   </edge>

   <edge id=":xp1_5" function="internal">
      <lanes>
         <lane id=":xp1_5_0" depart="0" maxspeed="13.90" length="22.98" shape="302.35,255.95 294.67,255.43 288.57,254.30 283.69,253.17 279.65,252.65"/>
      </lanes>
   </edge>

   <edge id=":xp1_6" function="internal">
      <lanes>
         <lane id=":xp1_6_0" depart="0" maxspeed="13.90" length="7.37" shape="302.35,252.65 294.00,250.24"/>
      </lanes>
   </edge>

   <edge id=":xp1_18" function="internal">
      <lanes>
         <lane id=":xp1_18_0" depart="0" maxspeed="13.90" length="13.59" shape="294.00,250.24 292.60,249.40 290.16,245.34 289.35,239.65"/>
      </lanes>
   </edge>

   <edge id=":xp1_7" function="internal">
      <lanes>
         <lane id=":xp1_7_0" depart="0" maxspeed="13.90" length="0.10" shape="302.35,252.65 301.20,251.88"/>
      </lanes>
   </edge>

   <edge id=":xp1_19" function="internal">
      <lanes>
         <lane id=":xp1_19_0" depart="0" maxspeed="13.90" length="4.72" shape="301.20,251.88 301.11,251.83 300.70,251.00 301.11,250.18 302.35,249.35"/>
      </lanes>
   </edge>

   <edge id=":xp1_8" function="internal">
      <lanes>
         <lane id=":xp1_8_0" depart="0" maxspeed="13.90" length="10.88" shape="299.25,239.65 299.44,243.89 300.03,246.93 300.99,248.74 302.35,249.35"/>
      </lanes>
   </edge>

   <edge id=":xp1_9" function="internal">
      <lanes>
         <lane id=":xp1_9_0" depart="0" maxspeed="13.90" length="22.98" shape="295.95,239.65 295.43,247.33 294.30,253.43 293.17,258.31 292.65,262.35"/>
      </lanes>
   </edge>

   <edge id=":xp1_10" function="internal">
      <lanes>
         <lane id=":xp1_10_0" depart="0" maxspeed="13.90" length="12.92" shape="292.65,239.65 291.84,245.34 287.42,250.59"/>
      </lanes>
   </edge>

   <edge id=":xp1_20" function="internal">
      <lanes>
         <lane id=":xp1_20_0" depart="0" maxspeed="13.90" length="8.05" shape="287.42,250.59 285.34,251.84 279.65,252.65"/>
      </lanes>
   </edge>

   <edge id=":xp1_11" function="internal">
      <lanes>
         <lane id=":xp1_11_0" depart="0" maxspeed="13.90" length="0.10" shape="292.65,239.65 291.88,240.80"/>
      </lanes>
   </edge>

   <edge id=":xp1_21" function="internal">
      <lanes>
         <lane id=":xp1_21_0" depart="0" maxspeed="13.90" length="4.72" shape="291.88,240.80 291.83,240.89 291.00,241.30 290.18,240.89 289.35,239.65"/>
      </lanes>
   </edge>

   <edge id=":xp1_12" function="internal">
      <lanes>
         <lane id=":xp1_12_0" depart="0" maxspeed="13.90" length="10.88" shape="279.65,242.75 283.89,242.56 286.92,241.97 288.74,241.01 289.35,239.65"/>
      </lanes>
   </edge>

   <edge id=":xp1_13" function="internal">
      <lanes>
         <lane id=":xp1_13_0" depart="0" maxspeed="13.90" length="22.98" shape="279.65,246.05 287.33,246.57 293.43,247.70 298.31,248.83 302.35,249.35"/>
      </lanes>
   </edge>

   <edge id=":xp1_14" function="internal">
      <lanes>
         <lane id=":xp1_14_0" depart="0" maxspeed="13.90" length="7.37" shape="279.65,249.35 288.00,251.76"/>
      </lanes>
   </edge>

   <edge id=":xp1_22" function="internal">
      <lanes>
         <lane id=":xp1_22_0" depart="0" maxspeed="13.90" length="13.59" shape="288.00,251.76 289.40,252.60 291.84,256.66 292.65,262.35"/>
      </lanes>
   </edge>

   <edge id=":xp1_15" function="internal">
      <lanes>
         <lane id=":xp1_15_0" depart="0" maxspeed="13.90" length="0.10" shape="279.65,249.35 280.80,250.12"/>
      </lanes>
   </edge>

   <edge id=":xp1_23" function="internal">
      <lanes>
         <lane id=":xp1_23_0" depart="0" maxspeed="13.90" length="4.72" shape="280.80,250.12 280.89,250.17 281.30,251.00 280.89,251.82 279.65,252.65"/>
      </lanes>
   </edge>

   <edge id=":xp1north_0" function="internal">
      <lanes>
         <lane id=":xp1north_0_0" depart="0" maxspeed="13.90" length="0.10" shape="289.35,501.00 289.35,501.00"/>
      </lanes>
   </edge>

   <edge id=":xp1north_1" function="internal">
      <lanes>
         <lane id=":xp1north_1_0" depart="0" maxspeed="13.90" length="4.82" shape="289.35,501.00 290.17,499.76 291.00,499.35 291.82,499.76 292.65,501.00"/>
      </lanes>
   </edge>

   <edge id=":xp1north_2" function="internal">
      <lanes>
         <lane id=":xp1north_2_0" depart="0" maxspeed="13.90" length="0.10" shape="292.65,501.00 292.65,501.00"/>
      </lanes>
   </edge>

   <edge id=":xp1north_3" function="internal">
      <lanes>
         <lane id=":xp1north_3_0" depart="0" maxspeed="13.90" length="4.82" shape="292.65,501.00 291.83,502.24 291.00,502.65 290.18,502.24 289.35,501.00"/>
      </lanes>
   </edge>

   <edge id=":xp1north_out_0" function="internal">
      <lanes>
         <lane id=":xp1north_out_0_0" depart="0" maxspeed="13.90" length="4.82" shape="292.65,502.00 291.83,503.24 291.00,503.65 290.18,503.24 289.35,502.00"/>
      </lanes>
   </edge>

   <edge id=":xp1north_turn_0" function="internal">
      <lanes>
         <lane id=":xp1north_turn_0_0" depart="0" maxspeed="13.90" length="7.25" shape="289.35,377.50 282.75,374.50"/>
      </lanes>
   </edge>

   <edge id=":xp1north_turn_1" function="internal">
      <lanes>
         <lane id=":xp1north_turn_1_0" depart="0" maxspeed="13.90" length="4.46" shape="289.35,377.50 286.05,374.50"/>
      </lanes>
   </edge>

   <edge id=":xp1north_turn_2" function="internal">
      <lanes>
         <lane id=":xp1north_turn_2_0" depart="0" maxspeed="13.90" length="3.00" shape="289.35,377.50 289.35,374.50"/>
      </lanes>
   </edge>

   <edge id=":xp1south_0" function="internal">
      <lanes>
         <lane id=":xp1south_0_0" depart="0" maxspeed="13.90" length="0.10" shape="289.35,1.00 289.35,1.00"/>
      </lanes>
   </edge>

   <edge id=":xp1south_1" function="internal">
      <lanes>
         <lane id=":xp1south_1_0" depart="0" maxspeed="13.90" length="4.82" shape="289.35,1.00 290.18,-0.24 291.00,-0.65 291.83,-0.24 292.65,1.00"/>
      </lanes>
   </edge>

   <edge id=":xp1south_2" function="internal">
      <lanes>
         <lane id=":xp1south_2_0" depart="0" maxspeed="13.90" length="0.10" shape="292.65,1.00 292.65,1.00"/>
      </lanes>
   </edge>

   <edge id=":xp1south_3" function="internal">
      <lanes>
         <lane id=":xp1south_3_0" depart="0" maxspeed="13.90" length="4.82" shape="292.65,1.00 291.83,2.24 291.00,2.65 290.18,2.24 289.35,1.00"/>
      </lanes>
   </edge>

   <edge id=":xp1south_out_0" function="internal">
      <lanes>
         <lane id=":xp1south_out_0_0" depart="0" maxspeed="13.90" length="4.82" shape="289.35,0.00 290.17,-1.24 291.00,-1.65 291.82,-1.24 292.65,0.00"/>
      </lanes>
   </edge>

   <edge id=":xp1south_turn_0" function="internal">
      <lanes>
         <lane id=":xp1south_turn_0_0" depart="0" maxspeed="13.90" length="7.25" shape="292.65,124.50 299.25,127.50"/>
      </lanes>
   </edge>

   <edge id=":xp1south_turn_1" function="internal">
      <lanes>
         <lane id=":xp1south_turn_1_0" depart="0" maxspeed="13.90" length="4.46" shape="292.65,124.50 295.95,127.50"/>
      </lanes>
   </edge>

   <edge id=":xp1south_turn_2" function="internal">
      <lanes>
         <lane id=":xp1south_turn_2_0" depart="0" maxspeed="13.90" length="3.00" shape="292.65,124.50 292.65,127.50"/>
      </lanes>
   </edge>

   <edge id=":xp1turn_0" function="internal">
      <lanes>
         <lane id=":xp1turn_0_0" depart="0" maxspeed="13.90" length="7.25" shape="417.50,252.65 414.50,259.25"/>
      </lanes>
   </edge>

   <edge id=":xp1turn_1" function="internal">
      <lanes>
         <lane id=":xp1turn_1_0" depart="0" maxspeed="13.90" length="4.46" shape="417.50,252.65 414.50,255.95"/>
      </lanes>
   </edge>

   <edge id=":xp1turn_2" function="internal">
      <lanes>
         <lane id=":xp1turn_2_0" depart="0" maxspeed="13.90" length="3.00" shape="417.50,252.65 414.50,252.65"/>
      </lanes>
   </edge>

   <edge id=":xp1west_0" function="internal">
      <lanes>
         <lane id=":xp1west_0_0" depart="0" maxspeed="13.90" length="0.10" shape="1.00,252.65 1.00,252.65"/>
      </lanes>
   </edge>

   <edge id=":xp1west_1" function="internal">
      <lanes>
         <lane id=":xp1west_1_0" depart="0" maxspeed="13.90" length="4.82" shape="1.00,252.65 -0.24,251.83 -0.65,251.00 -0.24,250.18 1.00,249.35"/>
      </lanes>
   </edge>

   <edge id=":xp1west_2" function="internal">
      <lanes>
         <lane id=":xp1west_2_0" depart="0" maxspeed="13.90" length="0.10" shape="1.00,249.35 1.00,249.35"/>
      </lanes>
   </edge>

   <edge id=":xp1west_3" function="internal">
      <lanes>
         <lane id=":xp1west_3_0" depart="0" maxspeed="13.90" length="4.82" shape="1.00,249.35 2.24,250.18 2.65,251.00 2.24,251.82 1.00,252.65"/>
      </lanes>
   </edge>

   <edge id=":xp1west_out_0" function="internal">
      <lanes>
         <lane id=":xp1west_out_0_0" depart="0" maxspeed="13.90" length="4.82" shape="0.00,252.65 -1.24,251.82 -1.65,251.00 -1.24,250.18 0.00,249.35"/>
      </lanes>
   </edge>

   <edge id=":xp1west_turn_0" function="internal">
      <lanes>
         <lane id=":xp1west_turn_0_0" depart="0" maxspeed="13.90" length="7.25" shape="164.50,249.35 167.50,242.75"/>
      </lanes>
   </edge>

   <edge id=":xp1west_turn_1" function="internal">
      <lanes>
         <lane id=":xp1west_turn_1_0" depart="0" maxspeed="13.90" length="4.46" shape="164.50,249.35 167.50,246.05"/>
      </lanes>
   </edge>

   <edge id=":xp1west_turn_2" function="internal">
      <lanes>
         <lane id=":xp1west_turn_2_0" depart="0" maxspeed="13.90" length="3.00" shape="164.50,249.35 167.50,249.35"/>
      </lanes>
   </edge>

   <edge id=":xp2_0" function="internal">
      <lanes>
         <lane id=":xp2_0_0" depart="0" maxspeed="13.90" length="10.88" shape="702.75,262.35 702.56,258.11 701.97,255.08 701.01,253.26 699.65,252.65"/>
      </lanes>
   </edge>

   <edge id=":xp2_1" function="internal">
      <lanes>
         <lane id=":xp2_1_0" depart="0" maxspeed="13.90" length="22.98" shape="706.05,262.35 706.57,254.67 707.70,248.57 708.83,243.69 709.35,239.65"/>
      </lanes>
   </edge>

   <edge id=":xp2_2" function="internal">
      <lanes>
         <lane id=":xp2_2_0" depart="0" maxspeed="13.90" length="12.92" shape="709.35,262.35 710.16,256.66 714.58,251.41"/>
      </lanes>
   </edge>

   <edge id=":xp2_16" function="internal">
      <lanes>
         <lane id=":xp2_16_0" depart="0" maxspeed="13.90" length="8.05" shape="714.58,251.41 716.66,250.16 722.35,249.35"/>
      </lanes>
   </edge>

   <edge id=":xp2_3" function="internal">
      <lanes>
         <lane id=":xp2_3_0" depart="0" maxspeed="13.90" length="0.10" shape="709.35,262.35 710.12,261.20"/>
      </lanes>
   </edge>

   <edge id=":xp2_17" function="internal">
      <lanes>
         <lane id=":xp2_17_0" depart="0" maxspeed="13.90" length="4.72" shape="710.12,261.20 710.18,261.11 711.00,260.70 711.83,261.11 712.65,262.35"/>
      </lanes>
   </edge>

   <edge id=":xp2_4" function="internal">
      <lanes>
         <lane id=":xp2_4_0" depart="0" maxspeed="13.90" length="10.88" shape="722.35,259.25 718.11,259.44 715.08,260.02 713.26,260.99 712.65,262.35"/>
      </lanes>
   </edge>

   <edge id=":xp2_5" function="internal">
      <lanes>
         <lane id=":xp2_5_0" depart="0" maxspeed="13.90" length="22.98" shape="722.35,255.95 714.67,255.43 708.57,254.30 703.69,253.17 699.65,252.65"/>
      </lanes>
   </edge>

   <edge id=":xp2_6" function="internal">
      <lanes>
         <lane id=":xp2_6_0" depart="0" maxspeed="13.90" length="7.37" shape="722.35,252.65 714.00,250.24"/>
      </lanes>
   </edge>

   <edge id=":xp2_18" function="internal">
      <lanes>
         <lane id=":xp2_18_0" depart="0" maxspeed="13.90" length="13.59" shape="714.00,250.24 712.60,249.40 710.16,245.34 709.35,239.65"/>
      </lanes>
   </edge>

   <edge id=":xp2_7" function="internal">
      <lanes>
         <lane id=":xp2_7_0" depart="0" maxspeed="13.90" length="0.10" shape="722.35,252.65 721.20,251.88"/>
      </lanes>
   </edge>

   <edge id=":xp2_19" function="internal">
      <lanes>
         <lane id=":xp2_19_0" depart="0" maxspeed="13.90" length="4.72" shape="721.20,251.88 721.11,251.83 720.70,251.00 721.11,250.18 722.35,249.35"/>
      </lanes>
   </edge>

   <edge id=":xp2_8" function="internal">
      <lanes>
         <lane id=":xp2_8_0" depart="0" maxspeed="13.90" length="10.88" shape="719.25,239.65 719.44,243.89 720.03,246.93 720.99,248.74 722.35,249.35"/>
      </lanes>
   </edge>

   <edge id=":xp2_9" function="internal">
      <lanes>
         <lane id=":xp2_9_0" depart="0" maxspeed="13.90" length="22.98" shape="715.95,239.65 715.43,247.33 714.30,253.43 713.17,258.31 712.65,262.35"/>
      </lanes>
   </edge>

   <edge id=":xp2_10" function="internal">
      <lanes>
         <lane id=":xp2_10_0" depart="0" maxspeed="13.90" length="12.92" shape="712.65,239.65 711.84,245.34 707.42,250.59"/>
      </lanes>
   </edge>

   <edge id=":xp2_20" function="internal">
      <lanes>
         <lane id=":xp2_20_0" depart="0" maxspeed="13.90" length="8.05" shape="707.42,250.59 705.34,251.84 699.65,252.65"/>
      </lanes>
   </edge>

   <edge id=":xp2_11" function="internal">
      <lanes>
         <lane id=":xp2_11_0" depart="0" maxspeed="13.90" length="0.10" shape="712.65,239.65 711.88,240.80"/>
      </lanes>
   </edge>

   <edge id=":xp2_21" function="internal">
      <lanes>
         <lane id=":xp2_21_0" depart="0" maxspeed="13.90" length="4.72" shape="711.88,240.80 711.82,240.89 711.00,241.30 710.17,240.89 709.35,239.65"/>
      </lanes>
   </edge>

   <edge id=":xp2_12" function="internal">
      <lanes>
         <lane id=":xp2_12_0" depart="0" maxspeed="13.90" length="10.88" shape="699.65,242.75 703.89,242.56 706.92,241.97 708.74,241.01 709.35,239.65"/>
      </lanes>
   </edge>

   <edge id=":xp2_13" function="internal">
      <lanes>
         <lane id=":xp2_13_0" depart="0" maxspeed="13.90" length="22.98" shape="699.65,246.05 707.33,246.57 713.43,247.70 718.31,248.83 722.35,249.35"/>
      </lanes>
   </edge>

   <edge id=":xp2_14" function="internal">
      <lanes>
         <lane id=":xp2_14_0" depart="0" maxspeed="13.90" length="7.37" shape="699.65,249.35 708.00,251.76"/>
      </lanes>
   </edge>

   <edge id=":xp2_22" function="internal">
      <lanes>
         <lane id=":xp2_22_0" depart="0" maxspeed="13.90" length="13.59" shape="708.00,251.76 709.40,252.60 711.84,256.66 712.65,262.35"/>
      </lanes>
   </edge>

   <edge id=":xp2_15" function="internal">
      <lanes>
         <lane id=":xp2_15_0" depart="0" maxspeed="13.90" length="0.10" shape="699.65,249.35 700.80,250.12"/>
      </lanes>
   </edge>

   <edge id=":xp2_23" function="internal">
      <lanes>
         <lane id=":xp2_23_0" depart="0" maxspeed="13.90" length="4.72" shape="700.80,250.12 700.89,250.17 701.30,251.00 700.89,251.82 699.65,252.65"/>
      </lanes>
   </edge>

   <edge id=":xp2east_0" function="internal">
      <lanes>
         <lane id=":xp2east_0_0" depart="0" maxspeed="13.90" length="0.10" shape="1001.00,252.65 1001.00,252.65"/>
      </lanes>
   </edge>

   <edge id=":xp2east_1" function="internal">
      <lanes>
         <lane id=":xp2east_1_0" depart="0" maxspeed="13.90" length="4.82" shape="1001.00,252.65 999.76,251.83 999.35,251.00 999.76,250.18 1001.00,249.35"/>
      </lanes>
   </edge>

   <edge id=":xp2east_2" function="internal">
      <lanes>
         <lane id=":xp2east_2_0" depart="0" maxspeed="13.90" length="0.10" shape="1001.00,249.35 1001.00,249.35"/>
      </lanes>
   </edge>

   <edge id=":xp2east_3" function="internal">
      <lanes>
         <lane id=":xp2east_3_0" depart="0" maxspeed="13.90" length="4.82" shape="1001.00,249.35 1002.24,250.17 1002.65,251.00 1002.24,251.82 1001.00,252.65"/>
      </lanes>
   </edge>

   <edge id=":xp2east_out_0" function="internal">
      <lanes>
         <lane id=":xp2east_out_0_0" depart="0" maxspeed="13.90" length="4.82" shape="1002.00,249.35 1003.24,250.17 1003.65,251.00 1003.24,251.82 1002.00,252.65"/>
      </lanes>
   </edge>

   <edge id=":xp2east_turn_0" function="internal">
      <lanes>
         <lane id=":xp2east_turn_0_0" depart="0" maxspeed="13.90" length="7.25" shape="837.50,252.65 834.50,259.25"/>
      </lanes>
   </edge>

   <edge id=":xp2east_turn_1" function="internal">
      <lanes>
         <lane id=":xp2east_turn_1_0" depart="0" maxspeed="13.90" length="4.46" shape="837.50,252.65 834.50,255.95"/>
      </lanes>
   </edge>

   <edge id=":xp2east_turn_2" function="internal">
      <lanes>
         <lane id=":xp2east_turn_2_0" depart="0" maxspeed="13.90" length="3.00" shape="837.50,252.65 834.50,252.65"/>
      </lanes>
   </edge>

   <edge id=":xp2north_0" function="internal">
      <lanes>
         <lane id=":xp2north_0_0" depart="0" maxspeed="13.90" length="0.10" shape="709.35,501.00 709.35,501.00"/>
      </lanes>
   </edge>

   <edge id=":xp2north_1" function="internal">
      <lanes>
         <lane id=":xp2north_1_0" depart="0" maxspeed="13.90" length="4.82" shape="709.35,501.00 710.18,499.76 711.00,499.35 711.83,499.76 712.65,501.00"/>
      </lanes>
   </edge>

   <edge id=":xp2north_2" function="internal">
      <lanes>
         <lane id=":xp2north_2_0" depart="0" maxspeed="13.90" length="0.10" shape="712.65,501.00 712.65,501.00"/>
      </lanes>
   </edge>

   <edge id=":xp2north_3" function="internal">
      <lanes>
         <lane id=":xp2north_3_0" depart="0" maxspeed="13.90" length="4.82" shape="712.65,501.00 711.82,502.24 711.00,502.65 710.17,502.24 709.35,501.00"/>
      </lanes>
   </edge>

   <edge id=":xp2north_out_0" function="internal">
      <lanes>
         <lane id=":xp2north_out_0_0" depart="0" maxspeed="13.90" length="4.82" shape="712.65,502.00 711.82,503.24 711.00,503.65 710.17,503.24 709.35,502.00"/>
      </lanes>
   </edge>

   <edge id=":xp2north_turn_0" function="internal">
      <lanes>
         <lane id=":xp2north_turn_0_0" depart="0" maxspeed="13.90" length="7.25" shape="709.35,377.50 702.75,374.50"/>
      </lanes>
   </edge>

   <edge id=":xp2north_turn_1" function="internal">
      <lanes>
         <lane id=":xp2north_turn_1_0" depart="0" maxspeed="13.90" length="4.46" shape="709.35,377.50 706.05,374.50"/>
      </lanes>
   </edge>

   <edge id=":xp2north_turn_2" function="internal">
      <lanes>
         <lane id=":xp2north_turn_2_0" depart="0" maxspeed="13.90" length="3.00" shape="709.35,377.50 709.35,374.50"/>
      </lanes>
   </edge>

   <edge id=":xp2south_0" function="internal">
      <lanes>
         <lane id=":xp2south_0_0" depart="0" maxspeed="13.90" length="0.10" shape="709.35,1.00 709.35,1.00"/>
      </lanes>
   </edge>

   <edge id=":xp2south_1" function="internal">
      <lanes>
         <lane id=":xp2south_1_0" depart="0" maxspeed="13.90" length="4.82" shape="709.35,1.00 710.18,-0.24 711.00,-0.65 711.83,-0.24 712.65,1.00"/>
      </lanes>
   </edge>

   <edge id=":xp2south_2" function="internal">
      <lanes>
         <lane id=":xp2south_2_0" depart="0" maxspeed="13.90" length="0.10" shape="712.65,1.00 712.65,1.00"/>
      </lanes>
   </edge>

   <edge id=":xp2south_3" function="internal">
      <lanes>
         <lane id=":xp2south_3_0" depart="0" maxspeed="13.90" length="4.82" shape="712.65,1.00 711.82,2.24 711.00,2.65 710.17,2.24 709.35,1.00"/>
      </lanes>
   </edge>

   <edge id=":xp2south_out_0" function="internal">
      <lanes>
         <lane id=":xp2south_out_0_0" depart="0" maxspeed="13.90" length="4.82" shape="709.35,0.00 710.18,-1.24 711.00,-1.65 711.83,-1.24 712.65,0.00"/>
      </lanes>
   </edge>

   <edge id=":xp2south_turn_0" function="internal">
      <lanes>
         <lane id=":xp2south_turn_0_0" depart="0" maxspeed="13.90" length="7.25" shape="712.65,124.50 719.25,127.50"/>
      </lanes>
   </edge>

   <edge id=":xp2south_turn_1" function="internal">
      <lanes>
         <lane id=":xp2south_turn_1_0" depart="0" maxspeed="13.90" length="4.46" shape="712.65,124.50 715.95,127.50"/>
      </lanes>
   </edge>

   <edge id=":xp2south_turn_2" function="internal">
      <lanes>
         <lane id=":xp2south_turn_2_0" depart="0" maxspeed="13.90" length="3.00" shape="712.65,124.50 712.65,127.50"/>
      </lanes>
   </edge>

   <edge id=":xp2turn_0" function="internal">
      <lanes>
         <lane id=":xp2turn_0_0" depart="0" maxspeed="13.90" length="7.25" shape="584.50,249.35 587.50,242.75"/>
      </lanes>
   </edge>

   <edge id=":xp2turn_1" function="internal">
      <lanes>
         <lane id=":xp2turn_1_0" depart="0" maxspeed="13.90" length="4.46" shape="584.50,249.35 587.50,246.05"/>
      </lanes>
   </edge>

   <edge id=":xp2turn_2" function="internal">
      <lanes>
         <lane id=":xp2turn_2_0" depart="0" maxspeed="13.90" length="3.00" shape="584.50,249.35 587.50,249.35"/>
      </lanes>
   </edge>



   <edge id="xp1-xp1north" from="xp1" to="xp1north" priority="-1" type="" function="normal">
      <lanes>
         <lane id="xp1-xp1north_0" depart="1" maxspeed="13.90" length="238.65" shape="292.65,262.35 292.65,501.00"/>
      </lanes>
   </edge>

   <edge id="xp1-xp1south" from="xp1" to="xp1south" priority="-1" type="" function="normal">
      <lanes>
         <lane id="xp1-xp1south_0" depart="1" maxspeed="13.90" length="238.65" shape="289.35,239.65 289.35,1.00"/>
      </lanes>
   </edge>

   <edge id="xp1-xp1west" from="xp1" to="xp1west" priority="-1" type="" function="normal">
      <lanes>
         <lane id="xp1-xp1west_0" depart="1" maxspeed="13.90" length="278.65" shape="279.65,252.65 1.00,252.65"/>
      </lanes>
   </edge>

   <edge id="xp1-xp2turn" from="xp1" to="xp2turn" priority="-1" type="" function="normal">
      <lanes>
         <lane id="xp1-xp2turn_0" depart="1" maxspeed="13.90" length="282.15" shape="302.35,249.35 584.50,249.35"/>
      </lanes>
   </edge>

   <edge id="xp1north-xp1north_out" from="xp1north" to="xp1north_out" priority="-1" type="" function="normal">
      <lanes>
         <lane id="xp1north-xp1north_out_0" depart="1" maxspeed="13.90" length="1.00" shape="292.65,501.00 292.65,502.00"/>
      </lanes>
   </edge>

   <edge id="xp1north-xp1north_turn" from="xp1north" to="xp1north_turn" priority="-1" type="" function="normal">
      <lanes>
         <lane id="xp1north-xp1north_turn_0" depart="1" maxspeed="13.90" length="123.50" shape="289.35,501.00 289.35,377.50"/>
      </lanes>
   </edge>

   <edge id="xp1north_out-xp1north" from="xp1north_out" to="xp1north" priority="-1" type="" function="normal">
      <lanes>
         <lane id="xp1north_out-xp1north_0" depart="1" maxspeed="13.90" length="1.00" shape="289.35,502.00 289.35,501.00"/>
      </lanes>
   </edge>

   <edge id="xp1north_turn-xp1" from="xp1north_turn" to="xp1" priority="-1" type="" function="normal">
      <lanes>
         <lane id="xp1north_turn-xp1_0" depart="1" maxspeed="13.90" length="112.15" shape="282.75,374.50 282.75,262.35"/>
         <lane id="xp1north_turn-xp1_1" depart="0" maxspeed="13.90" length="112.15" shape="286.05,374.50 286.05,262.35"/>
         <lane id="xp1north_turn-xp1_2" depart="0" maxspeed="13.90" length="112.15" shape="289.35,374.50 289.35,262.35"/>
      </lanes>
   </edge>

   <edge id="xp1south-xp1south_out" from="xp1south" to="xp1south_out" priority="-1" type="" function="normal">
      <lanes>
         <lane id="xp1south-xp1south_out_0" depart="1" maxspeed="13.90" length="1.00" shape="289.35,1.00 289.35,0.00"/>
      </lanes>
   </edge>

   <edge id="xp1south-xp1south_turn" from="xp1south" to="xp1south_turn" priority="-1" type="" function="normal">
      <lanes>
         <lane id="xp1south-xp1south_turn_0" depart="1" maxspeed="13.90" length="123.50" shape="292.65,1.00 292.65,124.50"/>
      </lanes>
   </edge>

   <edge id="xp1south_out-xp1south" from="xp1south_out" to="xp1south" priority="-1" type="" function="normal">
      <lanes>
         <lane id="xp1south_out-xp1south_0" depart="1" maxspeed="13.90" length="1.00" shape="292.65,0.00 292.65,1.00"/>
      </lanes>
   </edge>

   <edge id="xp1south_turn-xp1" from="xp1south_turn" to="xp1" priority="-1" type="" function="normal">
      <lanes>
         <lane id="xp1south_turn-xp1_0" depart="1" maxspeed="13.90" length="112.15" shape="299.25,127.50 299.25,239.65"/>
         <lane id="xp1south_turn-xp1_1" depart="0" maxspeed="13.90" length="112.15" shape="295.95,127.50 295.95,239.65"/>
         <lane id="xp1south_turn-xp1_2" depart="0" maxspeed="13.90" length="112.15" shape="292.65,127.50 292.65,239.65"/>
      </lanes>
   </edge>

   <edge id="xp1turn-xp1" from="xp1turn" to="xp1" priority="-1" type="" function="normal">
      <lanes>
         <lane id="xp1turn-xp1_0" depart="1" maxspeed="13.90" length="112.15" shape="414.50,259.25 302.35,259.25"/>
         <lane id="xp1turn-xp1_1" depart="0" maxspeed="13.90" length="112.15" shape="414.50,255.95 302.35,255.95"/>
         <lane id="xp1turn-xp1_2" depart="0" maxspeed="13.90" length="112.15" shape="414.50,252.65 302.35,252.65"/>
      </lanes>
   </edge>

   <edge id="xp1west-xp1west_out" from="xp1west" to="xp1west_out" priority="-1" type="" function="normal">
      <lanes>
         <lane id="xp1west-xp1west_out_0" depart="1" maxspeed="13.90" length="1.00" shape="1.00,252.65 0.00,252.65"/>
      </lanes>
   </edge>

   <edge id="xp1west-xp1west_turn" from="xp1west" to="xp1west_turn" priority="-1" type="" function="normal">
      <lanes>
         <lane id="xp1west-xp1west_turn_0" depart="1" maxspeed="13.90" length="163.50" shape="1.00,249.35 164.50,249.35"/>
      </lanes>
   </edge>

   <edge id="xp1west_out-xp1west" from="xp1west_out" to="xp1west" priority="-1" type="" function="normal">
      <lanes>
         <lane id="xp1west_out-xp1west_0" depart="1" maxspeed="13.90" length="1.00" shape="0.00,249.35 1.00,249.35"/>
      </lanes>
   </edge>

   <edge id="xp1west_turn-xp1" from="xp1west_turn" to="xp1" priority="-1" type="" function="normal">
      <lanes>
         <lane id="xp1west_turn-xp1_0" depart="1" maxspeed="13.90" length="112.15" shape="167.50,242.75 279.65,242.75"/>
         <lane id="xp1west_turn-xp1_1" depart="0" maxspeed="13.90" length="112.15" shape="167.50,246.05 279.65,246.05"/>
         <lane id="xp1west_turn-xp1_2" depart="0" maxspeed="13.90" length="112.15" shape="167.50,249.35 279.65,249.35"/>
      </lanes>
   </edge>

   <edge id="xp2-xp1turn" from="xp2" to="xp1turn" priority="-1" type="" function="normal">
      <lanes>
         <lane id="xp2-xp1turn_0" depart="1" maxspeed="13.90" length="282.15" shape="699.65,252.65 417.50,252.65"/>
      </lanes>
   </edge>

   <edge id="xp2-xp2east" from="xp2" to="xp2east" priority="-1" type="" function="normal">
      <lanes>
         <lane id="xp2-xp2east_0" depart="1" maxspeed="13.90" length="278.65" shape="722.35,249.35 1001.00,249.35"/>
      </lanes>
   </edge>

   <edge id="xp2-xp2north" from="xp2" to="xp2north" priority="-1" type="" function="normal">
      <lanes>
         <lane id="xp2-xp2north_0" depart="1" maxspeed="13.90" length="238.65" shape="712.65,262.35 712.65,501.00"/>
      </lanes>
   </edge>

   <edge id="xp2-xp2south" from="xp2" to="xp2south" priority="-1" type="" function="normal">
      <lanes>
         <lane id="xp2-xp2south_0" depart="1" maxspeed="13.90" length="238.65" shape="709.35,239.65 709.35,1.00"/>